Circuit: * D:\2017\USP 2017\WARTHOG 2017\Projeto Faquinha\Time-5\Power\feed.asc

Direct Newton iteration failed to find .op point.  (Use ".option noopiter" to skip.)
Starting Gmin stepping
Gmin = 10
Gmin = 1.07374
Gmin = 0.115292
Gmin = 0.0123794
Gmin = 0.00132923
Gmin = 0.000142725
vernier = 0.5
Gmin = 2.39452e-005
vernier = 0.25
vernier = 0.125
vernier = 0.0625
vernier = 0.03125
Gmin = 2.05683e-005
vernier = 0.0416667
Gmin = 1.87844e-005
vernier = 0.0555555
vernier = 0.074074
Gmin = 1.61975e-005
vernier = 0.0987653
vernier = 0.131687
Gmin = 1.28208e-005
vernier = 0.175583
Gmin = 8.79613e-006
vernier = 0.23411
vernier = 0.312147
Gmin = 4.78102e-006
vernier = 0.416196
vernier = 0.554928
Gmin = 1.85041e-006
vernier = 0.739903
Gmin = 4.13632e-007
vernier = 0.986537
vernier = 1
Gmin = 4.76146e-008
Gmin = 5.11257e-009
Gmin = 5.48958e-010
Gmin = 5.8944e-011
Gmin = 6.32906e-012
Gmin = 6.79578e-013
Gmin = 0
Gmin stepping succeeded in finding the operating point.


Date: Thu Aug 31 19:45:23 2017
Total elapsed time: 11.390 seconds.

tnom = 27
temp = 27
method = modified trap
totiter = 201382
traniter = 200040
tranpoints = 100021
accept = 100021
rejected = 0
matrix size = 69
fillins = 118
solver = Normal
Thread vector: 26.5/9.5[3] 9.6/5.6[3] 6.2/4.2[3] 0.9/1.4[1]  2592/500
Matrix Compiler1: 16.47 KB object code size  3.9/1.9/[1.3]
Matrix Compiler2: off  [1.6]/2.4/3.6

